Circuit: * C:\git-checkouts\radar-speed-sign\ltspice\lm358_amplifier_bode.asc

WARNING: Node OUT is floating.

WARNING: Less than two connections to node OUT.  This node is used by C3.
Direct Newton iteration for .op point succeeded.

Date: Tue Feb 27 21:53:25 2024
Total elapsed time: 0.042 seconds.

tnom = 27
temp = 27
method = trap
totiter = 3
traniter = 0
tranpoints = 0
accept = 0
rejected = 0
matrix size = 9
fillins = 1
solver = Normal
Matrix Compiler1:      33 opcodes
Matrix Compiler2: 715 bytes object code size
